@<TRIPOS>MOLECULE
lvs 20.0 0.0 0.0 0.0 20.0 0.0 0.0 0.0 20.0
 27 28 0 0 0
SMALL
GASTEIGER

@<TRIPOS>ATOM
      1 N          -4.9290    0.0399    0.0192 N.ar    1  UNL1       -0.3292
      2 C          -3.5709   -0.1925    0.0135 C.ar    1  UNL1        0.1627
      3 C          -2.9992    1.0858   -0.0176 C.ar    1  UNL1        0.1470
      4 N          -3.9676    2.0769   -0.0308 N.ar    1  UNL1       -0.2308
      5 C          -5.1001    1.4115   -0.0079 C.ar    1  UNL1        0.0957
      6 C          -1.5837    1.1389   -0.0260 C.ar    1  UNL1        0.1471
      7 N          -0.9134   -0.0369   -0.0060 N.ar    1  UNL1       -0.2188
      8 C          -1.6048   -1.1953    0.0224 C.ar    1  UNL1        0.1205
      9 N          -2.9280   -1.3722    0.0344 N.ar    1  UNL1       -0.2162
     10 H           0.1309    2.2874   -0.0474 H       1  UNL1        0.1438
     11 N          -0.8935    2.2922   -0.0528 N.pl3   1  UNL1       -0.3413
     12 H          -5.6502   -0.6703    0.0417 H       1  UNL1        0.1682
     13 H          -6.0921    1.8596   -0.0087 H       1  UNL1        0.1027
     14 H          -1.4087    3.1616   -0.0627 H       1  UNL1        0.1438
     15 H          -0.9808   -2.0955    0.0371 H       1  UNL1        0.1048
     16 C           3.9454   -1.5366    0.0174 C.ar    2  UNL2        0.0189
     17 C           4.6178   -0.3617    0.0159 C.ar    2  UNL2        0.0115
     18 N           3.9679    0.8570    0.0055 N.ar    2  UNL2       -0.3143
     19 C           2.5860    0.9835   -0.0053 C.ar    2  UNL2        0.3267
     20 N           1.9118   -0.2105   -0.0037 N.ar    2  UNL2       -0.2751
     21 C           2.4737   -1.4936    0.0082 C.ar    2  UNL2        0.2539
     22 O           2.0429    2.0870   -0.0160 O.2     2  UNL2       -0.2467
     23 H           4.4685   -2.4699    0.0251 H       2  UNL2        0.0686
     24 O           1.7602   -2.4879    0.0107 O.2     2  UNL2       -0.2677
     25 H           5.7082   -0.3096    0.0228 H       2  UNL2        0.0810
     26 H           4.4824    1.7292    0.0033 H       2  UNL2        0.1698
     27 H           0.8598   -0.1515   -0.0082 H       2  UNL2        0.1734
@<TRIPOS>BOND
     1     1    12    1
     2     1     5   ar
     3     1     2   ar
     4     2     9   ar
     5     2     3   ar
     6     3     4   ar
     7     3     6   ar
     8     4     5   ar
     9     5    13    1
    10     6     7   ar
    11     6    11    1
    12     7     8   ar
    13     8     9   ar
    14     8    15    1
    15    10    11    1
    16    11    14    1
    17    16    21   ar
    18    21    24    2
    19    16    17   ar
    20    17    18   ar
    21    17    25    1
    22    18    19   ar
    23    18    26    1
    24    19    20   ar
    25    19    22    2
    26    20    27    1
    27    20    21   ar
    28    16    23    1
