@<TRIPOS>MOLECULE
lvs 20.0 0.0 0.0 0.0 20.0 0.0 0.0 0.0 20.0
 27 28 0 0 0
SMALL
GASTEIGER

@<TRIPOS>ATOM
      1 N          -4.8530    0.1159    0.0118 N.ar    1  UNL1       -0.3292
      2 C          -3.5169   -0.1514    0.0114 C.ar    1  UNL1        0.1628
      3 C          -2.9061    1.0886   -0.0127 C.ar    1  UNL1        0.1492
      4 N          -3.8253    2.1053   -0.0269 N.ar    1  UNL1       -0.2306
      5 C          -4.9892    1.4822   -0.0114 C.ar    1  UNL1        0.0957
      6 C          -1.4550    1.1489   -0.0184 C.ar    1  UNL1        0.1540
      7 N          -0.9358   -0.1173    0.0003 N.ar    1  UNL1       -0.3296
      8 C          -1.6511   -1.2918    0.0235 C.ar    1  UNL1        0.0972
      9 N          -2.9527   -1.3880    0.0310 N.ar    1  UNL1       -0.2182
     10 H          -5.5920   -0.5714    0.0270 H       1  UNL1        0.1682
     11 N          -0.7917    2.2590   -0.0374 N.2     1  UNL1       -0.2817
     12 H          -1.0138   -2.1919    0.0364 H       1  UNL1        0.1028
     13 H          -5.9623    1.9559   -0.0155 H       1  UNL1        0.1027
     14 H          -1.4966    3.0202   -0.0486 H       1  UNL1        0.1884
     15 H           0.0782   -0.1864   -0.0041 H       1  UNL1        0.1682
     16 C           3.9190   -1.4755    0.0121 C.ar    2  UNL2        0.0209
     17 C           4.5941   -0.3218    0.0278 C.ar    2  UNL2        0.0115
     18 N           3.9111    0.8568    0.0342 N.ar    2  UNL2       -0.3162
     19 C           2.5624    0.8539    0.0183 C.ar    2  UNL2        0.2962
     20 N           1.7977   -0.1808    0.0025 N.ar    2  UNL2       -0.1575
     21 C           2.4280   -1.4177    0.0027 C.ar    2  UNL2        0.2758
     22 O           2.0281    2.0805    0.0197 O.3     2  UNL2       -0.4796
     23 H           4.3829   -2.4512    0.0057 H       2  UNL2        0.0687
     24 O           1.7962   -2.4684   -0.0053 O.2     2  UNL2       -0.2657
     25 H           5.6775   -0.2641    0.0342 H       2  UNL2        0.0810
     26 H           0.9245    2.2032    0.0199 H       2  UNL2        0.2953
     27 H           4.3982    1.7429    0.0451 H       2  UNL2        0.1697
@<TRIPOS>BOND
     1     8    12    1
     2     1     5   ar
     3     1     2   ar
     4     2     9   ar
     5     2     3   ar
     6     3     4   ar
     7     3     6   ar
     8     4     5   ar
     9     5    13    1
    10     6     7   ar
    11     6    11    2
    12     7     8   ar
    13     8     9   ar
    14     7    15    1
    15    16    23    1
    16    20    21   ar
    17    16    21   ar
    18    21    24    2
    19    16    17   ar
    20    17    18   ar
    21    17    25    1
    22    18    19   ar
    23    11    14    1
    24    19    20   ar
    25    19    22    1
    26     1    10    1
    27    22    26    1
    28    18    27    1
