@<TRIPOS>MOLECULE
*****
 21 23 0 0 0
SMALL
GASTEIGER

@<TRIPOS>ATOM
      1 C          -2.4967    0.3894    0.4086 C.ar    1  UNL1       -0.0357
      2 C          -1.8588    1.6224    0.2337 C.ar    1  UNL1        0.0303
      3 N          -0.5255    1.6756   -0.0351 N.ar    1  UNL1       -0.2395
      4 C           0.2274    0.5476   -0.1422 C.ar    1  UNL1        0.1308
      5 C          -0.3710   -0.7103    0.0261 C.ar    1  UNL1        0.0293
      6 C          -1.7500   -0.7918    0.3051 C.ar    1  UNL1       -0.0126
      7 C           0.4058   -1.8769   -0.0839 C.ar    1  UNL1       -0.0129
      8 C           1.8538   -1.7613   -0.3773 C.2     1  UNL1       -0.0400
      9 C           2.4106   -0.5483   -0.5355 C.2     1  UNL1       -0.0043
     10 N           1.6186    0.6324   -0.4234 N.pl3   1  UNL1       -0.3052
     11 H          -3.5585    0.3604    0.6218 H       1  UNL1        0.0639
     12 H          -2.4264    2.5400    0.3121 H       1  UNL1        0.0830
     13 H          -2.0350   -4.1819    0.4933 H       1  UNL1        0.0618
     14 C          -2.3453   -2.0509    0.4730 C.ar    1  UNL1       -0.0538
     15 C          -0.2016   -3.1285    0.0859 C.ar    1  UNL1       -0.0538
     16 H           0.3822   -4.0369    0.0041 H       1  UNL1        0.0624
     17 H           2.4688   -2.6520   -0.4648 H       1  UNL1        0.0636
     18 H          -3.4037   -2.1367    0.6881 H       1  UNL1        0.0624
     19 C          -1.5715   -3.2126    0.3631 C.ar    1  UNL1       -0.0606
     20 H           3.4716   -0.4658   -0.7500 H       1  UNL1        0.0782
     21 H           2.0629    1.5540   -0.5471 H       1  UNL1        0.1530
@<TRIPOS>BOND
     1     1     2   ar
     2     1     6   ar
     3     1    11    1
     4     2     3   ar
     5     2    12    1
     6     3     4   ar
     7    19    13    1
     8     4     5   ar
     9     4    10    1
    10     5     6   ar
    11     5     7   ar
    12     6    14   ar
    13     7     8    1
    14     7    15   ar
    15     8     9    2
    16    15    16    1
    17     9    10    1
    18     8    17    1
    19    15    19   ar
    20    14    19   ar
    21     9    20    1
    22    14    18    1
    23    10    21    1
