@<TRIPOS>MOLECULE
*****
 42 46 0 0 0
SMALL
GASTEIGER

@<TRIPOS>ATOM
      1 C          -2.4967    0.3894    0.4086 C.ar    1  UNL1       -0.0357
      2 C          -1.8588    1.6224    0.2337 C.ar    1  UNL1        0.0303
      3 N          -0.5255    1.6756   -0.0351 N.ar    1  UNL1       -0.2395
      4 C           0.2274    0.5476   -0.1422 C.ar    1  UNL1        0.1308
      5 C          -0.3710   -0.7103    0.0261 C.ar    1  UNL1        0.0293
      6 C          -1.7500   -0.7918    0.3051 C.ar    1  UNL1       -0.0126
      7 C           0.4058   -1.8769   -0.0839 C.ar    1  UNL1       -0.0129
      8 C           1.8538   -1.7613   -0.3773 C.2     1  UNL1       -0.0400
      9 C           2.4106   -0.5483   -0.5355 C.2     1  UNL1       -0.0043
     10 N           1.6186    0.6324   -0.4234 N.pl3   1  UNL1       -0.3052
     11 H          -3.5585    0.3604    0.6218 H       1  UNL1        0.0639
     12 H          -2.4264    2.5400    0.3121 H       1  UNL1        0.0830
     13 H          -2.0350   -4.1819    0.4933 H       1  UNL1        0.0618
     14 C          -2.3453   -2.0509    0.4730 C.ar    1  UNL1       -0.0538
     15 C          -0.2016   -3.1285    0.0859 C.ar    1  UNL1       -0.0538
     16 H           0.3822   -4.0369    0.0041 H       1  UNL1        0.0624
     17 H           2.4688   -2.6520   -0.4648 H       1  UNL1        0.0636
     18 H          -3.4037   -2.1367    0.6881 H       1  UNL1        0.0624
     19 C          -1.5715   -3.2126    0.3631 C.ar    1  UNL1       -0.0606
     20 H           3.4716   -0.4658   -0.7500 H       1  UNL1        0.0782
     21 H           2.0629    1.5540   -0.5471 H       1  UNL1        0.1530
     22 C           4.8058    4.8977   -0.9054 C.ar    2  UNL2       -0.0357
     23 C           4.1654    3.6590   -0.7891 C.ar    2  UNL2        0.0303
     24 N           2.8315    3.5958   -0.5255 N.ar    2  UNL2       -0.2395
     25 C           2.0804    4.7190   -0.3670 C.ar    2  UNL2        0.1308
     26 C           2.6815    5.9823   -0.4750 C.ar    2  UNL2        0.0293
     27 C           4.0611    6.0741   -0.7475 C.ar    2  UNL2       -0.0126
     28 C           1.9067    7.1439   -0.3111 C.ar    2  UNL2       -0.0129
     29 C           0.4583    7.0174   -0.0245 C.2     2  UNL2       -0.0400
     30 C          -0.1011    5.7994    0.0756 C.2     2  UNL2       -0.0043
     31 N           0.6888    4.6237   -0.0918 N.pl3   2  UNL2       -0.3052
     32 H           5.8679    4.9346   -1.1159 H       2  UNL2        0.0639
     33 H           4.7316    2.7451   -0.9090 H       2  UNL2        0.0830
     34 H           4.3527    9.4688   -0.7753 H       2  UNL2        0.0618
     35 C           4.6591    7.3386   -0.8547 C.ar    2  UNL2       -0.0538
     36 C           2.5167    8.4009   -0.4210 C.ar    2  UNL2       -0.0538
     37 H           1.9344    9.3055   -0.2978 H       2  UNL2        0.0624
     38 H          -0.1549    7.9041    0.1058 H       2  UNL2        0.0636
     39 H           5.7180    7.4323   -1.0635 H       2  UNL2        0.0624
     40 C           3.8872    8.4953   -0.6916 C.ar    2  UNL2       -0.0606
     41 H          -1.1622    5.7089    0.2859 H       2  UNL2        0.0782
     42 H           0.2428    3.6982   -0.0108 H       2  UNL2        0.1530
@<TRIPOS>BOND
     1     1     2   ar
     2     1     6   ar
     3     1    11    1
     4     2     3   ar
     5     2    12    1
     6     3     4   ar
     7    19    13    1
     8     4     5   ar
     9     4    10    1
    10     5     6   ar
    11     5     7   ar
    12     6    14   ar
    13     7     8    1
    14     7    15   ar
    15     8     9    2
    16    15    16    1
    17     9    10    1
    18     8    17    1
    19    15    19   ar
    20    14    19   ar
    21     9    20    1
    22    14    18    1
    23    10    21    1
    24    22    23   ar
    25    22    27   ar
    26    22    32    1
    27    23    24   ar
    28    23    33    1
    29    24    25   ar
    30    34    40    1
    31    25    26   ar
    32    25    31    1
    33    26    27   ar
    34    26    28   ar
    35    27    35   ar
    36    28    29    1
    37    28    36   ar
    38    29    30    2
    39    36    37    1
    40    30    31    1
    41    29    38    1
    42    36    40   ar
    43    35    40   ar
    44    30    41    1
    45    35    39    1
    46    31    42    1
