@<TRIPOS>MOLECULE
*****
 18 19 0 0 0
SMALL
GASTEIGER

@<TRIPOS>ATOM
      1 C           2.4401    0.7161    0.0789 C.2     1  UNL1        0.0077
      2 C           2.4670   -0.6173   -0.0789 C.2     1  UNL1        0.0077
      3 N           1.2531   -1.3581   -0.1635 N.pl3   1  UNL1       -0.3180
      4 C          -0.0036   -0.6980   -0.0826 C.ar    1  UNL1        0.0524
      5 C          -0.0317    0.6973    0.0826 C.ar    1  UNL1        0.0524
      6 N           1.1974    1.4075    0.1635 N.pl3   1  UNL1       -0.3180
      7 C          -1.2604    1.3671    0.1648 C.ar    1  UNL1       -0.0387
      8 C          -2.4558    0.6453    0.0821 C.ar    1  UNL1       -0.0599
      9 C          -2.4279   -0.7436   -0.0821 C.ar    1  UNL1       -0.0599
     10 C          -1.2044   -1.4167   -0.1648 C.ar    1  UNL1       -0.0387
     11 H           3.3709    1.2711    0.1422 H       1  UNL1        0.0794
     12 H           3.4193   -1.1344   -0.1422 H       1  UNL1        0.0794
     13 H          -3.3550   -1.2986   -0.1455 H       1  UNL1        0.0618
     14 H          -1.1916   -2.4918   -0.2921 H       1  UNL1        0.0637
     15 H          -1.2909    2.4418    0.2921 H       1  UNL1        0.0637
     16 H          -3.4045    1.1626    0.1455 H       1  UNL1        0.0618
     17 H           1.1991    2.4313    0.2838 H       1  UNL1        0.1517
     18 H           1.2960   -2.3811   -0.2838 H       1  UNL1        0.1517
@<TRIPOS>BOND
     1     1     2    2
     2     1     6    1
     3     1    11    1
     4     2     3    1
     5     2    12    1
     6     3     4    1
     7     9    13    1
     8     4     5   ar
     9     4    10   ar
    10     5     6    1
    11     5     7   ar
    12    10    14    1
    13     7     8   ar
    14     7    15    1
    15     8     9   ar
    16     8    16    1
    17     9    10   ar
    18     6    17    1
    19     3    18    1
