@<TRIPOS>MOLECULE
*****
 24 27 0 0 0
SMALL
GASTEIGER

@<TRIPOS>ATOM
      1 C           1.2298    0.7137    0.0641 C.ar    1  UNL1        0.0116
      2 C          -0.0128    1.4150    0.0637 C.ar    1  UNL1        0.0680
      3 C          -1.2085    0.7032    0.0637 C.ar    1  UNL1       -0.0463
      4 C          -1.2085   -0.7032    0.0637 C.ar    1  UNL1       -0.0463
      5 C          -0.0128   -1.4150    0.0637 C.ar    1  UNL1        0.0680
      6 C           1.2298   -0.7137    0.0641 C.ar    1  UNL1        0.0116
      7 C           3.6680    0.7032    0.0637 C.ar    1  UNL1       -0.0463
      8 C           2.4723    1.4150    0.0637 C.ar    1  UNL1        0.0680
      9 C           2.4723   -1.4150    0.0637 C.ar    1  UNL1        0.0680
     10 C           3.6680   -0.7032    0.0637 C.ar    1  UNL1       -0.0463
     11 C           2.4786    2.9093    0.0633 C.2     1  UNL1        0.3474
     12 O           1.2298    3.5456    0.0637 O.3     1  UNL1       -0.3860
     13 C          -0.0190    2.9092    0.0633 C.2     1  UNL1        0.3474
     14 C          -0.0190   -2.9092    0.0633 C.2     1  UNL1        0.3474
     15 O           1.2298   -3.5456    0.0637 O.3     1  UNL1       -0.3860
     16 C           2.4786   -2.9093    0.0633 C.2     1  UNL1        0.3474
     17 O          -1.0514   -3.5800    0.0624 O.2     1  UNL1       -0.2444
     18 O           3.5109   -3.5800    0.0624 O.2     1  UNL1       -0.2444
     19 O          -1.0514    3.5800    0.0624 O.2     1  UNL1       -0.2444
     20 O           3.5109    3.5800    0.0624 O.2     1  UNL1       -0.2444
     21 H          -2.1456    1.2557    0.0634 H       1  UNL1        0.0626
     22 H          -2.1456   -1.2557    0.0634 H       1  UNL1        0.0626
     23 H           4.6051    1.2556    0.0634 H       1  UNL1        0.0626
     24 H           4.6051   -1.2556    0.0634 H       1  UNL1        0.0626
@<TRIPOS>BOND
     1     1     6   ar
     2     1     2   ar
     3     1     8   ar
     4     2     3   ar
     5     2    13    1
     6     3     4   ar
     7     3    21    1
     8     4    22    1
     9     4     5   ar
    10     5    14    1
    11     5     6   ar
    12     6     9   ar
    13     7    10   ar
    14     7     8   ar
    15     7    23    1
    16     8    11    1
    17     9    16    1
    18     9    10   ar
    19    10    24    1
    20    11    12    1
    21    11    20    2
    22    12    13    1
    23    16    18    2
    24    13    19    2
    25    14    17    2
    26    14    15    1
    27    15    16    1
