@<TRIPOS>MOLECULE
XYZ file generated by Avogadro.
 50 56 0 0 0
SMALL
GASTEIGER

@<TRIPOS>ATOM
      1 C           0.6435   -4.2035    0.0517 C.ar    1  UNL1       -0.0364
      2 C          -0.7841   -4.2104    0.0500 C.ar    1  UNL1       -0.0364
      3 C          -1.1955   -2.8548   -0.1404 C.ar    1  UNL1        0.0417
      4 C           1.0421   -2.8442   -0.1377 C.ar    1  UNL1        0.0417
      5 N          -0.0802   -2.0649   -0.2542 N.ar    1  UNL1       -0.3550
      6 C           2.4322   -2.4659   -0.0938 C.2     1  UNL1       -0.0123
      7 C           2.9754   -1.1289   -0.0432 C.2     1  UNL1        0.0742
      8 N           2.1157   -0.0440   -0.1348 N.2     1  UNL1       -0.2465
      9 C           2.8961    1.0949   -0.0695 C.2     1  UNL1        0.0742
     10 C           4.3397   -0.6962    0.0789 C.ar    1  UNL1        0.0096
     11 C           4.2603    0.7140    0.0994 C.ar    1  UNL1        0.0096
     12 C           2.4691    2.4764   -0.1387 C.2     1  UNL1       -0.0123
     13 C           1.0450    2.7249   -0.1558 C.ar    1  UNL1        0.0417
     14 N          -0.0868    1.9571   -0.3044 N.ar    1  UNL1       -0.3550
     15 C          -0.8084    4.0055    0.0481 C.ar    1  UNL1       -0.0364
     16 C           0.6152    4.0104    0.0493 C.ar    1  UNL1       -0.0364
     17 C          -3.0698    1.0696   -0.0764 C.2     1  UNL1        0.0742
     18 N          -2.2854   -0.0659   -0.1409 N.2     1  UNL1       -0.2465
     19 C          -3.1420   -1.1560   -0.0528 C.2     1  UNL1        0.0742
     20 C          -4.5068   -0.7273    0.0666 C.ar    1  UNL1        0.0096
     21 C          -4.4328    0.6831    0.0881 C.ar    1  UNL1        0.0096
     22 C          -2.5895   -2.4893   -0.1006 C.2     1  UNL1       -0.0123
     23 C          -2.6485    2.4530   -0.1428 C.2     1  UNL1       -0.0123
     24 C          -1.2266    2.7149   -0.1578 C.ar    1  UNL1        0.0417
     25 H          -0.0832    0.9530   -0.4400 H       1  UNL1        0.1659
     26 H           1.2951   -5.0591    0.1973 H       1  UNL1        0.0639
     27 H          -5.7961   -2.4582   -0.0561 H       1  UNL1        0.0624
     28 H           3.1923   -3.2386   -0.0110 H       1  UNL1        0.0659
     29 C           5.5644   -1.3402    0.0067 C.ar    1  UNL1       -0.0519
     30 C           5.4158    1.5588    0.0388 C.ar    1  UNL1       -0.0519
     31 H          -3.3409   -3.2694   -0.0066 H       1  UNL1        0.0659
     32 H          -1.4274   -5.0724    0.1942 H       1  UNL1        0.0639
     33 H          -7.8560   -1.0506   -0.0442 H       1  UNL1        0.0618
     34 H          -0.0849   -1.0565   -0.3505 H       1  UNL1        0.1659
     35 C          -5.7309   -1.3742   -0.0018 C.ar    1  UNL1       -0.0519
     36 C          -5.5899    1.5252    0.0328 C.ar    1  UNL1       -0.0519
     37 H          -3.3323    3.2919   -0.0394 H       1  UNL1        0.0659
     38 C          -6.8804   -0.5708   -0.0084 C.ar    1  UNL1       -0.0611
     39 H           5.4124    2.6459    0.0305 H       1  UNL1        0.0624
     40 H           7.5632    1.4476   -0.0203 H       1  UNL1        0.0618
     41 C           6.6400    0.8744    0.0068 C.ar    1  UNL1       -0.0611
     42 C           6.7117   -0.5340   -0.0035 C.ar    1  UNL1       -0.0611
     43 H           5.6320   -2.4234   -0.0483 H       1  UNL1        0.0624
     44 H           7.6883   -1.0113   -0.0422 H       1  UNL1        0.0618
     45 H          -5.5891    2.6118    0.0275 H       1  UNL1        0.0624
     46 H          -7.7374    1.4085   -0.0190 H       1  UNL1        0.0618
     47 H           3.1468    3.3190   -0.0250 H       1  UNL1        0.0659
     48 C          -6.8125    0.8377    0.0038 C.ar    1  UNL1       -0.0611
     49 H          -1.4371    4.8767    0.2049 H       1  UNL1        0.0639
     50 H           1.2339    4.8887    0.2070 H       1  UNL1        0.0639
@<TRIPOS>BOND
     1     1     2   ar
     2    14    25    1
     3     1     4   ar
     4     1    26    1
     5     2     3   ar
     6     3    22    2
     7     3     5   ar
     8     4     5   ar
     9     4     6    2
    10    35    38   ar
    11     6     7    1
    12     7     8    2
    13     7    10    1
    14     6    28    1
    15     8     9    1
    16     9    12    2
    17     9    11    1
    18    10    11   ar
    19    10    29   ar
    20    11    30   ar
    21    12    13    1
    22    22    31    1
    23    13    14   ar
    24    13    16   ar
    25    14    24   ar
    26     2    32    1
    27    15    16   ar
    28    15    24   ar
    29    38    33    1
    30    17    21    1
    31    17    18    1
    32    17    23    2
    33    18    19    2
    34     5    34    1
    35    19    20    1
    36    19    22    1
    37    20    35   ar
    38    20    21   ar
    39    21    36   ar
    40    23    37    1
    41    12    47    1
    42    23    24    1
    43    41    42   ar
    44    41    40    1
    45    30    41   ar
    46    29    42   ar
    47    29    43    1
    48    30    39    1
    49    42    44    1
    50    48    46    1
    51    48    38   ar
    52    36    45    1
    53    36    48   ar
    54    35    27    1
    55    15    49    1
    56    16    50    1
