@<TRIPOS>MOLECULE
*****
 50 56 0 0 0
SMALL
GASTEIGER

@<TRIPOS>ATOM
      1 C           0.6126   -4.2480   -0.0001 C.2     1  UNL1       -0.0342
      2 C          -0.7044   -4.2492    0.0004 C.2     1  UNL1       -0.0342
      3 C          -1.1775   -2.9762    0.0039 C.2     1  UNL1        0.0665
      4 C           1.0825   -2.9740    0.0028 C.2     1  UNL1        0.0665
      5 N          -0.0485   -2.1773    0.0029 N.2     1  UNL1       -0.2477
      6 C           2.4314   -2.4806   -0.0011 C.2     1  UNL1       -0.0123
      7 C           3.0116   -1.1654   -0.0008 C.ar    1  UNL1        0.0495
      8 N           2.2789    0.0264   -0.0008 N.ar    1  UNL1       -0.3540
      9 C           3.0025    1.2235   -0.0008 C.ar    1  UNL1        0.0495
     10 C           4.3343   -0.6448   -0.0005 C.ar    1  UNL1        0.0075
     11 C           4.3293    0.7141   -0.0004 C.ar    1  UNL1        0.0075
     12 C           2.3984    2.5282   -0.0016 C.2     1  UNL1       -0.0123
     13 C           1.0407    2.9969    0.0067 C.2     1  UNL1        0.0665
     14 N          -0.0752    2.1793    0.0042 N.2     1  UNL1       -0.2477
     15 C          -0.7685    4.2395   -0.0001 C.2     1  UNL1       -0.0342
     16 C           0.5480    4.2623    0.0010 C.2     1  UNL1       -0.0342
     17 C          -3.1804    1.1470   -0.0036 C.ar    1  UNL1        0.0495
     18 N          -2.4844   -0.0667   -0.0022 N.ar    1  UNL1       -0.3540
     19 C          -3.2473   -1.2396   -0.0013 C.ar    1  UNL1        0.0495
     20 C          -4.5579   -0.6874   -0.0016 C.ar    1  UNL1        0.0075
     21 C          -4.5194    0.6707   -0.0028 C.ar    1  UNL1        0.0075
     22 C          -2.5273   -2.4842   -0.0004 C.2     1  UNL1       -0.0123
     23 C          -2.5575    2.4422   -0.0060 C.2     1  UNL1       -0.0123
     24 C          -1.2176    2.9580    0.0048 C.2     1  UNL1        0.0665
     25 H           3.1732   -3.2756    0.0000 H       1  UNL1        0.0659
     26 H           1.2349   -5.1398   -0.0027 H       1  UNL1        0.0639
     27 H           3.1306    3.3318   -0.0000 H       1  UNL1        0.0659
     28 H           1.2660    0.0224   -0.0008 H       1  UNL1        0.1659
     29 C           5.5249   -1.3644   -0.0006 C.ar    1  UNL1       -0.0520
     30 C           5.5137    1.4429   -0.0000 C.ar    1  UNL1       -0.0520
     31 H          -3.2934   -3.2553    0.0000 H       1  UNL1        0.0659
     32 H          -1.3244   -5.1425   -0.0016 H       1  UNL1        0.0639
     33 H          -1.4052    5.1211   -0.0040 H       1  UNL1        0.0639
     34 H          -1.4715   -0.0956   -0.0021 H       1  UNL1        0.1659
     35 C          -5.7666   -1.3772   -0.0003 C.ar    1  UNL1       -0.0520
     36 C          -5.6860    1.4297   -0.0030 C.ar    1  UNL1       -0.0520
     37 H           1.1536    5.1656   -0.0017 H       1  UNL1        0.0639
     38 C          -6.9527   -0.6381   -0.0006 C.ar    1  UNL1       -0.0611
     39 H           5.4999    2.5304    0.0001 H       1  UNL1        0.0624
     40 H           7.6632    1.2899    0.0004 H       1  UNL1        0.0618
     41 C           6.7232    0.7448    0.0002 C.ar    1  UNL1       -0.0611
     42 C           6.7287   -0.6557   -0.0001 C.ar    1  UNL1       -0.0611
     43 H           5.5199   -2.4516   -0.0005 H       1  UNL1        0.0624
     44 H           7.6730   -1.1946    0.0000 H       1  UNL1        0.0618
     45 H          -5.6454    2.5159   -0.0039 H       1  UNL1        0.0624
     46 H          -7.8381    1.3311   -0.0021 H       1  UNL1        0.0618
     47 H          -5.7883   -2.4639    0.0010 H       1  UNL1        0.0624
     48 C          -6.9125    0.7614   -0.0019 C.ar    1  UNL1       -0.0611
     49 H          -7.9103   -1.1519    0.0004 H       1  UNL1        0.0618
     50 H          -3.2902    3.2448    0.0007 H       1  UNL1        0.0659
@<TRIPOS>BOND
     1     1     2    2
     2     6    25    1
     3     1     4    1
     4     1    26    1
     5     2     3    1
     6     3    22    2
     7     3     5    1
     8     4     5    2
     9     4     6    1
    10    12    27    1
    11     6     7    2
    12     7     8   ar
    13     7    10   ar
    14     8    28    1
    15     8     9   ar
    16     9    12    2
    17     9    11   ar
    18    10    11   ar
    19    10    29   ar
    20    11    30   ar
    21    12    13    1
    22    22    31    1
    23    13    14    2
    24    13    16    1
    25    14    24    1
    26     2    32    1
    27    15    16    2
    28    15    24    1
    29    15    33    1
    30    17    21   ar
    31    17    18   ar
    32    17    23    1
    33    18    19   ar
    34    18    34    1
    35    19    20   ar
    36    19    22    1
    37    20    35   ar
    38    20    21   ar
    39    21    36   ar
    40    16    37    1
    41    35    47    1
    42    23    24    2
    43    41    42   ar
    44    40    41    1
    45    30    41   ar
    46    29    42   ar
    47    29    43    1
    48    30    39    1
    49    42    44    1
    50    46    48    1
    51    38    48   ar
    52    36    45    1
    53    36    48   ar
    54    38    49    1
    55    35    38   ar
    56    23    50    1
