@<TRIPOS>MOLECULE
*****
 24 24 0 0 0
SMALL
GASTEIGER

@<TRIPOS>ATOM
      1 C           1.2137   -0.3743   -0.0300 C.ar    1  UNL1        0.2487
      2 C           0.4136   -1.5211   -0.0089 C.ar    1  UNL1        0.0028
      3 C          -0.9755   -1.3849    0.0105 C.ar    1  UNL1       -0.0553
      4 C          -1.5491   -0.1121    0.0088 C.ar    1  UNL1       -0.0455
      5 C          -0.7230    1.0135   -0.0128 C.ar    1  UNL1        0.0049
      6 N           0.6293    0.8691   -0.0318 N.ar    1  UNL1       -0.3291
      7 O           2.4276   -0.4789   -0.0468 O.2     1  UNL1       -0.2679
      8 H           6.5757    5.1443   -0.5254 H       2  UNL2        0.0620
      9 H           0.8613   -2.5062   -0.0075 H       1  UNL1        0.0671
     10 H           4.1175    5.3621   -0.2990 H       2  UNL2        0.0671
     11 H          -2.6239    0.0043    0.0240 H       1  UNL1        0.0632
     12 C           3.8049    3.2371   -0.0717 C.ar    2  UNL2        0.2487
     13 C           4.5814    4.3852   -0.2551 C.ar    2  UNL2        0.0028
     14 C           5.9656    4.2618   -0.3827 C.ar    2  UNL2       -0.0553
     15 C           6.5590    2.9992   -0.3275 C.ar    2  UNL2       -0.0455
     16 C           5.7557    1.8712   -0.1448 C.ar    2  UNL2        0.0049
     17 N           4.4076    2.0031   -0.0216 N.ar    2  UNL2       -0.3291
     18 O           2.5960    3.3310    0.0442 O.2     2  UNL2       -0.2679
     19 H           7.6304    2.8929   -0.4268 H       2  UNL2        0.0632
     20 H           6.2077    0.8893   -0.1008 H       2  UNL2        0.0808
     21 H           3.8256    1.1471    0.1145 H       2  UNL2        0.1683
     22 H          -1.6052   -2.2652    0.0268 H       1  UNL1        0.0620
     23 H          -1.1598    2.0036   -0.0145 H       1  UNL1        0.0808
     24 H           1.2273    1.7246   -0.0482 H       1  UNL1        0.1683
@<TRIPOS>BOND
     1     1     2   ar
     2     1     6   ar
     3     1     7    2
     4     2     3   ar
     5    14     8    1
     6     3     4   ar
     7     2     9    1
     8     4     5   ar
     9    13    10    1
    10     5     6   ar
    11     4    11    1
    12    12    13   ar
    13    12    17   ar
    14    12    18    2
    15    13    14   ar
    16    15    19    1
    17    14    15   ar
    18    16    20    1
    19    15    16   ar
    20    17    21    1
    21    16    17   ar
    22     3    22    1
    23     5    23    1
    24     6    24    1
