@<TRIPOS>MOLECULE
*****
 24 24 0 0 0
SMALL
GASTEIGER

@<TRIPOS>ATOM
      1 C           1.3870    0.0128   -0.0156 C.ar    1  UNL1        0.2122
      2 C           0.6822   -1.1955   -0.0055 C.ar    1  UNL1       -0.0002
      3 C          -0.7150   -1.1701    0.0053 C.ar    1  UNL1       -0.0553
      4 C          -1.3874    0.0537    0.0046 C.ar    1  UNL1       -0.0434
      5 C          -0.6485    1.2390   -0.0079 C.ar    1  UNL1        0.0314
      6 N           0.7100    1.1934   -0.0172 N.ar    1  UNL1       -0.2215
      7 O           2.7337    0.0079   -0.0243 O.3     1  UNL1       -0.4924
      8 H           1.2085   -2.1415   -0.0061 H       1  UNL1        0.0671
      9 H          -1.2760   -2.0956    0.0138 H       1  UNL1        0.0620
     10 H          -2.4686    0.0852    0.0130 H       1  UNL1        0.0633
     11 H          -1.1530    2.1955   -0.0103 H       1  UNL1        0.0831
     12 C           3.4256    3.7850   -0.0951 C.ar    2  UNL2        0.2122
     13 C           4.1022    5.0004   -0.2419 C.ar    2  UNL2       -0.0002
     14 C           5.4951    4.9996   -0.3387 C.ar    2  UNL2       -0.0553
     15 C           6.1946    3.7925   -0.2893 C.ar    2  UNL2       -0.0434
     16 C           5.4840    2.5971   -0.1443 C.ar    2  UNL2        0.0314
     17 N           4.1271    2.6193   -0.0505 N.ar    2  UNL2       -0.2215
     18 O           2.0824    3.7762   -0.0002 O.3     2  UNL2       -0.4924
     19 H           3.5538    5.9323   -0.2808 H       2  UNL2        0.0671
     20 H           6.0305    5.9336   -0.4524 H       2  UNL2        0.0620
     21 H           7.2742    3.7818   -0.3634 H       2  UNL2        0.0633
     22 H           6.0123    1.6541   -0.1073 H       2  UNL2        0.0831
     23 H           1.5887    2.9504    0.0967 H       2  UNL2        0.2937
     24 H           3.2347    0.8350   -0.0344 H       1  UNL1        0.2937
@<TRIPOS>BOND
     1     1     2   ar
     2     1     6   ar
     3     1     7    1
     4     2     3   ar
     5     2     8    1
     6     3     4   ar
     7     3     9    1
     8     4     5   ar
     9     4    10    1
    10     5     6   ar
    11     5    11    1
    12    12    13   ar
    13    12    17   ar
    14    12    18    1
    15    13    14   ar
    16    13    19    1
    17    14    15   ar
    18    14    20    1
    19    15    16   ar
    20    15    21    1
    21    16    17   ar
    22    16    22    1
    23    18    23    1
    24     7    24    1
