@<TRIPOS>MOLECULE
*****
 11 11 0 0 0
SMALL
GASTEIGER

@<TRIPOS>ATOM
      1 C           1.5170    0.2212    0.0000 C.1     1  UNL1        0.1349
      2 C           0.8617   -0.9417   -0.0000 C.2     1  UNL1        0.0278
      3 C          -0.6190   -0.9967    0.0000 C.2     1  UNL1       -0.0492
      4 C          -1.3121    0.1433    0.0000 C.2     1  UNL1       -0.0445
      5 C          -0.5601    1.4099   -0.0000 C.2     1  UNL1        0.0287
      6 N           0.7338    1.3952   -0.0000 N.am    1  UNL1       -0.1536
      7 O           2.7108    0.1191    0.0000 O.2     1  UNL1       -0.2251
      8 H           1.4041   -1.8856   -0.0000 H       1  UNL1        0.0744
      9 H          -1.1323   -1.9531   -0.0000 H       1  UNL1        0.0625
     10 H          -2.3973    0.1386   -0.0000 H       1  UNL1        0.0631
     11 H          -1.0904    2.3557    0.0000 H       1  UNL1        0.0810
@<TRIPOS>BOND
     1     1     2    2
     2     1     6    1
     3     1     7    2
     4     2     3    1
     5     2     8    1
     6     3     4    2
     7     3     9    1
     8     4     5    1
     9     4    10    1
    10     5     6    2
    11     5    11    1
