@<TRIPOS>MOLECULE
*****
 16 17 0 0 0
SMALL
GASTEIGER

@<TRIPOS>ATOM
      1 C           2.4043    0.7520    0.0000 C.ar    1  UNL1        0.0464
      2 C           2.4325   -0.6546   -0.0000 C.ar    1  UNL1        0.0464
      3 N           1.2642   -1.3693    0.0000 N.ar    1  UNL1       -0.2519
      4 C           0.0143   -0.7144    0.0000 C.ar    1  UNL1        0.0892
      5 C          -0.0143    0.7144   -0.0000 C.ar    1  UNL1        0.0892
      6 N           1.2082    1.4191    0.0000 N.ar    1  UNL1       -0.2519
      7 C          -1.2642    1.3693   -0.0000 C.ar    1  UNL1       -0.0342
      8 C          -2.4325    0.6546   -0.0000 C.ar    1  UNL1       -0.0596
      9 C          -2.4043   -0.7520    0.0000 C.ar    1  UNL1       -0.0596
     10 C          -1.2082   -1.4191   -0.0000 C.ar    1  UNL1       -0.0342
     11 H           3.3342    1.3052    0.0000 H       1  UNL1        0.0845
     12 H           3.3839   -1.1700   -0.0000 H       1  UNL1        0.0845
     13 H          -3.3342   -1.3052    0.0000 H       1  UNL1        0.0618
     14 H          -1.1854   -2.5019    0.0000 H       1  UNL1        0.0639
     15 H          -1.2854    2.4522   -0.0000 H       1  UNL1        0.0639
     16 H          -3.3839    1.1700   -0.0000 H       1  UNL1        0.0618
@<TRIPOS>BOND
     1     1     2   ar
     2     1     6   ar
     3     1    11    1
     4     2     3   ar
     5     2    12    1
     6     3     4   ar
     7     9    13    1
     8     4     5   ar
     9     4    10   ar
    10     5     6   ar
    11     5     7   ar
    12    10    14    1
    13     7     8   ar
    14     7    15    1
    15     8     9   ar
    16     8    16    1
    17     9    10   ar
