@<TRIPOS>MOLECULE
*****
 28 30 0 0 0
SMALL
GASTEIGER

@<TRIPOS>ATOM
      1 C          -1.3764    1.4130    0.0898 C.3     1  UNL1       -0.0473
      2 C          -0.4302    1.0926    1.2528 C.3     1  UNL1       -0.0392
      3 H          -3.5028   -0.2928    0.8539 H       1  UNL1        0.0282
      4 C          -2.9179   -0.8721    3.4106 C.1     1  UNL1       -0.0988
      5 C          -2.7798    1.7530    0.6215 C.3     1  UNL1       -0.0392
      6 H          -3.2317    1.7872    3.9486 H       1  UNL1        0.0282
      7 H          -1.5937    1.3225    4.3698 H       1  UNL1        0.0282
      8 C          -1.0000   -0.0921    2.0534 C.3     1  UNL1       -0.0336
      9 C          -2.6663    2.9954    1.5213 C.3     1  UNL1       -0.0473
     10 H          -3.4544    1.9579   -0.2178 H       1  UNL1        0.0301
     11 C          -3.3421    0.5964    1.4684 C.3     1  UNL1       -0.0336
     12 H          -2.2948    3.8455    0.9351 H       1  UNL1        0.0271
     13 H          -3.6583    3.2756    1.8956 H       1  UNL1        0.0271
     14 C          -1.7157    2.7067    2.6983 C.3     1  UNL1       -0.0392
     15 C          -2.3876    0.2647    2.6328 C.3     1  UNL1        0.0325
     16 C          -2.2553    1.5243    3.5225 C.3     1  UNL1       -0.0336
     17 C          -0.3258    2.3307    2.1581 C.3     1  UNL1       -0.0473
     18 H          -1.0715   -0.9756    1.4041 H       1  UNL1        0.0282
     19 H          -0.3050   -0.3597    2.8601 H       1  UNL1        0.0282
     20 H          -4.3341    0.8732    1.8536 H       1  UNL1        0.0282
     21 H          -0.9842    2.2565   -0.4922 H       1  UNL1        0.0271
     22 H          -1.4099    0.5602   -0.5933 H       1  UNL1        0.0271
     23 H           0.3593    2.1284    2.9891 H       1  UNL1        0.0271
     24 H           0.0950    3.1706    1.5917 H       1  UNL1        0.0271
     25 H           0.5603    0.8324    0.8643 H       1  UNL1        0.0301
     26 H          -1.6370    3.5924    3.3364 H       1  UNL1        0.0301
     27 C          -3.3519   -1.8096    4.0274 C.1     1  UNL1       -0.1186
     28 H          -3.7379   -2.6442    4.5637 H       1  UNL1        0.1228
@<TRIPOS>BOND
     1     1     2    1
     2     3    11    1
     3     4    15    1
     4     1     5    1
     5     8    18    1
     6    17    24    1
     7     2     8    1
     8     5     9    1
     9     5    10    1
    10     5    11    1
    11     9    12    1
    12     9    13    1
    13     9    14    1
    14    11    15    1
    15    14    16    1
    16    14    17    1
    17     8    19    1
    18    15    16    1
    19     8    15    1
    20     6    16    1
    21     7    16    1
    22    11    20    1
    23     1    21    1
    24     1    22    1
    25    17    23    1
    26     2    17    1
    27     2    25    1
    28    14    26    1
    29     4    27    3
    30    27    28    1
