@<TRIPOS>MOLECULE
*****
 27 29 0 0 0
SMALL
GASTEIGER

@<TRIPOS>ATOM
      1 SI         -1.1366    1.4352   -0.7906 Si      1  UNL1        0.0000
      2 SI          0.2785    0.9865    0.9363 Si      1  UNL1        0.0000
      3 H          -2.5278    4.9589    0.5448 H       1  UNL1        0.0000
      4 C          -3.2679   -1.5664    3.9685 C.1     1  UNL1        0.0000
      5 SI         -3.2039    1.9770   -0.0053 Si      1  UNL1        0.0000
      6 H          -5.3455    0.6517    1.7877 H       1  UNL1        0.0000
      7 H          -4.1482   -0.9483    0.3873 H       1  UNL1        0.0000
      8 SI         -0.5778   -0.7457    2.1453 Si      1  UNL1        0.0000
      9 SI         -3.0351    3.8132    1.3353 Si      1  UNL1        0.0000
     10 H          -4.3800    4.0853    1.8934 H       1  UNL1        0.0000
     11 SI         -4.0244    0.2549    1.2438 Si      1  UNL1        0.0000
     12 H           1.2914    2.4624    3.4314 H       1  UNL1        0.0000
     13 N          -3.6917   -2.4664    4.6298 N.1     1  UNL1        0.0000
     14 SI         -1.6195    3.4014    3.0721 Si      1  UNL1        0.0000
     15 SI         -2.6134   -0.1788    2.9613 Si      1  UNL1        0.0000
     16 SI         -2.4318    1.6513    4.2861 Si      1  UNL1        0.0000
     17 SI          0.4350    2.8216    2.2765 Si      1  UNL1        0.0000
     18 H          -1.4893    1.3523    5.3910 H       1  UNL1        0.0000
     19 H          -3.7710    2.0046    4.8150 H       1  UNL1        0.0000
     20 H          -4.1189    2.2510   -1.1416 H       1  UNL1        0.0000
     21 H           1.0008    3.9525    1.5059 H       1  UNL1        0.0000
     22 H          -1.5092    4.6083    3.9303 H       1  UNL1        0.0000
     23 H          -0.7282   -1.9174    1.2495 H       1  UNL1        0.0000
     24 H           1.6212    0.6240    0.4170 H       1  UNL1        0.0000
     25 H           0.3377   -1.0539    3.2698 H       1  UNL1        0.0000
     26 H          -0.6002    2.5741   -1.5715 H       1  UNL1        0.0000
     27 H          -1.2570    0.2136   -1.6200 H       1  UNL1        0.0000
@<TRIPOS>BOND
     1     1     2    1
     2     9     3    1
     3     4    15    1
     4     1     5    1
     5    16    18    1
     6     2    24    1
     7     2     8    1
     8     5     9    1
     9     9    10    1
    10     5    11    1
    11    17    12    1
    12     4    13    3
    13     9    14    1
    14    11    15    1
    15    14    16    1
    16    14    17    1
    17    16    19    1
    18    15    16    1
    19     8    15    1
    20    11     6    1
    21    11     7    1
    22     5    20    1
    23    17    21    1
    24    14    22    1
    25     8    23    1
    26     2    17    1
    27     8    25    1
    28     1    26    1
    29     1    27    1
